@<TRIPOS>MOLECULE
SRO
 35 36 0 0 0
SMALL
GASTEIGER

@<TRIPOS>ATOM
      1 O          -2.7470    2.4070   -0.0690 O.3     1  LIG1       -0.3918
      2 C          -2.1630    1.1800   -0.0140 C.3     1  LIG1        0.0559
      3 C          -2.9360    0.0560    0.2690 C.3     1  LIG1       -0.0218
      4 C          -2.3610   -1.1930    0.3290 C.3     1  LIG1       -0.0071
      5 C          -0.9960   -1.3420    0.1040 C.3     1  LIG1       -0.0192
      6 N          -0.1520   -2.4320    0.0940 N.4     1  LIG1        0.2296
      7 C           1.1250   -2.0280   -0.1860 C.3     1  LIG1       -0.0299
      8 C           1.1560   -0.6980   -0.3640 C.3     1  LIG1        0.0119
      9 C          -0.2130   -0.2090   -0.1820 C.3     1  LIG1        0.0121
     10 C          -0.8080    1.0530   -0.2450 C.3     1  LIG1       -0.0185
     11 C           2.3690    0.1350   -0.6870 C.3     1  LIG1       -0.0046
     12 C           2.9580    0.7020    0.6060 C.3     1  LIG1       -0.0349
     13 N           4.1410    1.5140    0.2900 N.4     1  LIG1        0.2185
     14 H          -2.0753    3.0758   -0.2750 H       1  LIG1        0.2098
     15 H          -1.7164    0.6038    0.7692 H       1  LIG1        0.0593
     16 H          -3.6939    0.0081   -0.4848 H       1  LIG1        0.0292
     17 H          -3.2450    0.2261    1.2792 H       1  LIG1        0.0292
     18 H          -2.8617   -1.7988   -0.3971 H       1  LIG1        0.0321
     19 H          -2.4719   -1.4657    1.3577 H       1  LIG1        0.0321
     20 H          -1.8729   -1.9111    0.3321 H       1  LIG1        0.0853
     21 H          -0.4616   -3.0933   -0.6182 H       1  LIG1        0.2016
     22 H          -0.1699   -2.8797    1.0103 H       1  LIG1        0.2016
     23 H           1.4628   -2.5130   -1.0779 H       1  LIG1        0.0817
     24 H           1.7636   -2.2883    0.6321 H       1  LIG1        0.0817
     25 H           2.0168   -0.1094   -0.6038 H       1  LIG1        0.0359
     26 H          -0.0005    0.8290   -0.3317 H       1  LIG1        0.0361
     27 H          -0.3108    1.6674    0.4763 H       1  LIG1        0.0295
     28 H          -0.7025    1.3284   -1.2735 H       1  LIG1        0.0295
     29 H           2.0871    0.9398   -1.3333 H       1  LIG1        0.0321
     30 H           3.1006   -0.4748   -1.1745 H       1  LIG1        0.0321
     31 H           3.2399   -0.1026    1.2525 H       1  LIG1        0.0813
     32 H           2.2266    1.3118    1.0940 H       1  LIG1        0.0813
     33 H           4.8381    0.9326   -0.1751 H       1  LIG1        0.1994
     34 H           4.5340    1.8921    1.1520 H       1  LIG1        0.1994
     35 H           3.8722    2.2811   -0.3262 H       1  LIG1        0.1994
@<TRIPOS>BOND
     1     1     2    1
     2     2    10    1
     3     2     3    1
     4     3     4    1
     5     4     5    1
     6     5     6    1
     7     5     9    1
     8     6     7    1
     9     7     8    1
    10     8    11    1
    11     8     9    1
    12     9    10    1
    13    11    12    1
    14    12    13    1
    15     1    14    1
    16     2    15    1
    17     3    16    1
    18     3    17    1
    19     4    18    1
    20     4    19    1
    21     5    20    1
    22     6    21    1
    23     6    22    1
    24     7    23    1
    25     7    24    1
    26     8    25    1
    27     9    26    1
    28    10    27    1
    29    10    28    1
    30    11    29    1
    31    11    30    1
    32    12    31    1
    33    12    32    1
    34    13    33    1
    35    13    34    1
    36    13    35    1
